<?xml version="1.0" encoding="UTF-8"?>

<!-- generated on 2025-02-14 11:36:17 by Eclipse SUMO netedit Version 1.22.0
<neteditConfiguration xmlns:xsi="http://www.w3.org/2001/XMLSchema-instance" xsi:noNamespaceSchemaLocation="http://sumo.dlr.de/xsd/neteditConfiguration.xsd">

    <input>
        <sumocfg-file value="C:\Users\seans\Desktop\GMU\CS690\cs690-p1\rosslyn\rosslyn_config.sumocfg"/>
        <route-files value="C:\Users\seans\Desktop\GMU\CS690\cs690-p1\rosslyn\rosslyn_traffic.rou.xml"/>
        <sumo-net-file value="C:\Users\seans\Desktop\GMU\CS690\cs690-p1\rosslyn\rosslyn_net.net.xml"/>
        <osm-files value="C:\Users\seans\Desktop\GMU\CS690\cs690-p1\maps\rosslyn.osm"/>
    </input>

    <output>
        <output-file value="C:\Users\seans\Desktop\GMU\CS690\cs690-p1\rosslyn\rosslyn_net.net.xml"/>
    </output>

    <projection>
        <proj.utm value="true"/>
    </projection>

    <processing>
        <geometry.remove value="true"/>
        <offset.disable-normalization value="true"/>
    </processing>

    <tls_building>
        <tls.discard-simple value="true"/>
        <tls.guess-signals value="true"/>
    </tls_building>

    <ramp_guessing>
        <ramps.guess value="true"/>
    </ramp_guessing>

    <junctions>
        <no-turnarounds value="true"/>
        <junctions.join value="true"/>
    </junctions>

</neteditConfiguration>
-->

<net version="1.20" junctionCornerDetail="5" limitTurnSpeed="5.50" xmlns:xsi="http://www.w3.org/2001/XMLSchema-instance" xsi:noNamespaceSchemaLocation="http://sumo.dlr.de/xsd/net_file.xsd">

    <location netOffset="0.00,0.00" convBoundary="317849.14,4306073.19,321703.56,4307933.80" origBoundary="-77.100054,38.884659,-77.055742,38.901981" projParameter="+proj=utm +zone=18 +ellps=WGS84 +datum=WGS84 +units=m +no_defs"/>

    <type id="highway.cycleway" priority="1" numLanes="1" speed="5.56" allow="bicycle" oneway="0" width="2.00"/>
    <type id="highway.footway" priority="1" numLanes="1" speed="2.78" allow="pedestrian" oneway="1" width="2.00"/>
    <type id="highway.motorway" priority="14" numLanes="2" speed="39.44" allow="private emergency authority army vip passenger hov taxi bus coach delivery truck trailer motorcycle evehicle custom1 custom2" oneway="1"/>
    <type id="highway.motorway_link" priority="9" numLanes="1" speed="22.22" allow="private emergency authority army vip passenger hov taxi bus coach delivery truck trailer motorcycle evehicle custom1 custom2" oneway="1"/>
    <type id="highway.path" priority="1" numLanes="1" speed="5.56" allow="pedestrian bicycle" oneway="0" width="2.00"/>
    <type id="highway.pedestrian" priority="1" numLanes="1" speed="2.78" allow="pedestrian" oneway="1" width="2.00"/>
    <type id="highway.primary" priority="12" numLanes="2" speed="27.78" disallow="tram rail_urban rail rail_electric rail_fast ship container cable_car subway aircraft wheelchair scooter drone" oneway="0"/>
    <type id="highway.primary_link" priority="7" numLanes="1" speed="22.22" disallow="tram rail_urban rail rail_electric rail_fast ship container cable_car subway aircraft wheelchair scooter drone" oneway="0"/>
    <type id="highway.residential" priority="3" numLanes="1" speed="13.89" disallow="tram rail_urban rail rail_electric rail_fast ship container cable_car subway aircraft wheelchair scooter drone" oneway="0"/>
    <type id="highway.service" priority="1" numLanes="1" speed="5.56" allow="pedestrian delivery bicycle" oneway="0"/>
    <type id="highway.steps" priority="1" numLanes="1" speed="1.39" allow="pedestrian" oneway="1" width="2.00"/>
    <type id="highway.tertiary" priority="10" numLanes="1" speed="22.22" disallow="tram rail_urban rail rail_electric rail_fast ship container cable_car subway aircraft wheelchair scooter drone" oneway="0"/>
    <type id="highway.trunk" priority="13" numLanes="2" speed="27.78" disallow="pedestrian bicycle tram rail_urban rail rail_electric rail_fast ship container cable_car subway aircraft wheelchair scooter drone" oneway="0"/>
    <type id="highway.trunk_link" priority="8" numLanes="1" speed="22.22" disallow="pedestrian bicycle tram rail_urban rail rail_electric rail_fast ship container cable_car subway aircraft wheelchair scooter drone" oneway="0"/>
    <type id="highway.unclassified" priority="4" numLanes="1" speed="13.89" disallow="tram rail_urban rail rail_electric rail_fast ship container cable_car subway aircraft wheelchair scooter drone" oneway="0"/>
    <type id="railway.subway" priority="18" numLanes="1" speed="27.78" allow="subway" oneway="1"/>

    <edge id=":10085859023_0" function="internal">
        <lane id=":10085859023_0_0" index="0" disallow="tram rail_urban rail rail_electric rail_fast ship container cable_car subway aircraft wheelchair scooter drone" speed="11.18" length="3.95" shape="320532.94,4307115.60 320536.14,4307113.29"/>
        <lane id=":10085859023_0_1" index="1" disallow="tram rail_urban rail rail_electric rail_fast ship container cable_car subway aircraft wheelchair scooter drone" speed="11.18" length="3.95" shape="320534.82,4307118.20 320538.01,4307115.88"/>
    </edge>
    <edge id=":10087854678_0" function="internal">
        <lane id=":10087854678_0_0" index="0" allow="pedestrian delivery bicycle" speed="5.56" length="9.33" shape="320148.91,4307078.42 320146.40,4307077.32 320144.81,4307076.29 320143.41,4307074.98 320141.47,4307073.00"/>
    </edge>
    <edge id=":10087854678_1" function="internal">
        <lane id=":10087854678_1_0" index="0" allow="pedestrian delivery bicycle" speed="5.56" length="8.03" shape="320143.72,4307070.73 320145.39,4307072.44 320146.58,4307073.59 320147.94,4307074.49 320150.09,4307075.45"/>
    </edge>
    <edge id=":10087854679_0" function="internal">
        <lane id=":10087854679_0_0" index="0" disallow="tram rail_urban rail rail_electric rail_fast ship container cable_car subway aircraft wheelchair scooter drone" speed="11.18" length="9.64" shape="320156.86,4307073.47 320155.84,4307083.06"/>
    </edge>
    <edge id=":10087854679_1" function="internal">
        <lane id=":10087854679_1_0" index="0" allow="pedestrian delivery bicycle" speed="6.63" length="3.64" shape="320156.86,4307073.47 320156.07,4307076.70 320155.86,4307076.95"/>
    </edge>
    <edge id=":10087854679_6" function="internal">
        <lane id=":10087854679_6_0" index="0" allow="pedestrian delivery bicycle" speed="6.63" length="7.71" shape="320155.86,4307076.95 320154.51,4307078.61 320152.19,4307079.21 320149.10,4307078.50"/>
    </edge>
    <edge id=":10087854679_2" function="internal">
        <lane id=":10087854679_2_0" index="0" allow="pedestrian delivery bicycle" speed="4.71" length="5.10" shape="320150.28,4307075.52 320151.62,4307075.82 320152.64,4307075.52 320153.33,4307074.63 320153.68,4307073.13"/>
    </edge>
    <edge id=":10087854679_3" function="internal">
        <lane id=":10087854679_3_0" index="0" allow="pedestrian delivery bicycle" speed="7.62" length="10.14" shape="320150.28,4307075.52 320152.92,4307076.90 320154.72,4307078.61 320155.70,4307080.67 320155.84,4307083.06"/>
    </edge>
    <edge id=":10087854679_4" function="internal">
        <lane id=":10087854679_4_0" index="0" allow="pedestrian delivery bicycle" speed="5.99" length="5.95" shape="320152.66,4307082.72 320152.55,4307081.44 320151.91,4307080.31 320150.77,4307079.33 320149.10,4307078.50"/>
    </edge>
    <edge id=":10087854679_5" function="internal">
        <lane id=":10087854679_5_0" index="0" disallow="tram rail_urban rail rail_electric rail_fast ship container cable_car subway aircraft wheelchair scooter drone" speed="11.18" length="9.64" shape="320152.66,4307082.72 320153.68,4307073.13"/>
    </edge>
    <edge id=":10116660007_0" function="internal">
        <lane id=":10116660007_0_0" index="0" allow="pedestrian delivery bicycle" speed="6.17" length="7.79" shape="320502.10,4307145.13 320501.74,4307143.75 320502.24,4307142.28 320503.60,4307140.73 320505.81,4307139.10"/>
    </edge>
    <edge id=":10116660007_1" function="internal">
        <lane id=":10116660007_1_0" index="0" disallow="tram rail_urban rail rail_electric rail_fast ship container cable_car subway aircraft wheelchair scooter drone" speed="11.18" length="9.40" shape="320496.10,4307141.32 320504.09,4307136.39"/>
        <lane id=":10116660007_1_1" index="1" disallow="tram rail_urban rail rail_electric rail_fast ship container cable_car subway aircraft wheelchair scooter drone" speed="11.18" length="9.40" shape="320497.81,4307144.03 320505.81,4307139.10"/>
    </edge>
    <edge id=":10116660007_3" function="internal">
        <lane id=":10116660007_3_0" index="0" allow="pedestrian delivery bicycle" speed="6.11" length="7.79" shape="320497.81,4307144.03 320500.32,4307142.82 320502.33,4307142.33 320503.85,4307142.56 320504.87,4307143.52"/>
    </edge>
    <edge id=":10116660008_0" function="internal">
        <lane id=":10116660008_0_0" index="0" disallow="tram rail_urban rail rail_electric rail_fast ship container cable_car subway aircraft wheelchair scooter drone" speed="11.18" length="9.40" shape="320513.55,4307152.22 320505.45,4307156.99"/>
        <lane id=":10116660008_0_1" index="1" disallow="tram rail_urban rail rail_electric rail_fast ship container cable_car subway aircraft wheelchair scooter drone" speed="11.18" length="9.40" shape="320511.93,4307149.46 320503.83,4307154.23"/>
    </edge>
    <edge id=":10116660008_2" function="internal">
        <lane id=":10116660008_2_0" index="0" allow="pedestrian delivery bicycle" speed="6.08" length="7.76" shape="320511.93,4307149.46 320509.45,4307150.69 320507.46,4307151.19 320505.95,4307150.94 320504.92,4307149.97"/>
    </edge>
    <edge id=":10116660008_3" function="internal">
        <lane id=":10116660008_3_0" index="0" allow="pedestrian delivery bicycle" speed="6.09" length="7.76" shape="320507.69,4307148.35 320508.03,4307149.73 320507.50,4307151.16 320506.10,4307152.66 320503.83,4307154.23"/>
    </edge>
    <edge id=":10116660009_0" function="internal">
        <lane id=":10116660009_0_0" index="0" allow="pedestrian delivery bicycle" speed="6.06" length="7.54" shape="320468.06,4307162.70 320467.38,4307160.00 320467.25,4307157.95 320467.67,4307156.54 320468.64,4307155.78"/>
        <lane id=":10116660009_0_1" index="1" allow="pedestrian delivery bicycle" speed="4.99" length="4.77" shape="320468.06,4307162.70 320467.81,4307161.33 320468.00,4307160.23 320468.62,4307159.39 320469.69,4307158.81"/>
    </edge>
    <edge id=":10116660009_2" function="internal">
        <lane id=":10116660009_2_0" index="0" disallow="tram rail_urban rail rail_electric rail_fast ship container cable_car subway aircraft wheelchair scooter drone" speed="11.18" length="5.87" shape="320462.05,4307154.68 320467.60,4307152.76"/>
        <lane id=":10116660009_2_1" index="1" disallow="tram rail_urban rail rail_electric rail_fast ship container cable_car subway aircraft wheelchair scooter drone" speed="11.18" length="5.87" shape="320463.10,4307157.70 320468.64,4307155.78"/>
        <lane id=":10116660009_2_2" index="2" disallow="tram rail_urban rail rail_electric rail_fast ship container cable_car subway aircraft wheelchair scooter drone" speed="11.18" length="5.87" shape="320464.14,4307160.73 320469.69,4307158.81"/>
    </edge>
    <edge id=":10116660009_5" function="internal">
        <lane id=":10116660009_5_0" index="0" allow="pedestrian delivery bicycle" speed="6.05" length="7.83" shape="320464.14,4307160.73 320466.83,4307160.01 320468.88,4307159.94 320470.31,4307160.52 320471.11,4307161.73"/>
    </edge>
    <edge id=":10116660010_0" function="internal">
        <lane id=":10116660010_0_0" index="0" disallow="tram rail_urban rail rail_electric rail_fast ship container cable_car subway aircraft wheelchair scooter drone" speed="11.18" length="8.84" shape="320476.88,4307169.37 320468.42,4307172.11"/>
        <lane id=":10116660010_0_1" index="1" disallow="tram rail_urban rail rail_electric rail_fast ship container cable_car subway aircraft wheelchair scooter drone" speed="11.18" length="8.84" shape="320475.85,4307166.34 320467.49,4307169.05"/>
    </edge>
    <edge id=":10116660010_2" function="internal">
        <lane id=":10116660010_2_0" index="0" allow="pedestrian delivery bicycle" speed="6.06" length="7.82" shape="320475.85,4307166.34 320473.17,4307167.04 320471.11,4307167.10 320469.69,4307166.53 320468.89,4307165.32"/>
    </edge>
    <edge id=":10116660010_3" function="internal">
        <lane id=":10116660010_3_0" index="0" allow="pedestrian delivery bicycle" speed="5.88" length="7.22" shape="320471.94,4307164.36 320472.02,4307165.79 320471.31,4307167.05 320469.80,4307168.13 320467.49,4307169.05"/>
    </edge>
    <edge id=":10196205345_0" function="internal">
        <lane id=":10196205345_0_0" index="0" disallow="tram rail_urban rail rail_electric rail_fast ship container cable_car subway aircraft wheelchair scooter drone" speed="13.89" length="5.06" shape="320353.35,4307282.20 320353.30,4307277.11"/>
        <lane id=":10196205345_0_1" index="1" disallow="tram rail_urban rail rail_electric rail_fast ship container cable_car subway aircraft wheelchair scooter drone" speed="13.89" length="5.06" shape="320356.54,4307282.15 320356.50,4307277.11"/>
    </edge>
    <edge id=":10196205358_0" function="internal">
        <lane id=":10196205358_0_0" index="0" disallow="tram rail_urban rail rail_electric rail_fast ship container cable_car subway aircraft wheelchair scooter drone" speed="13.89" length="5.43" shape="320538.66,4307144.83 320538.79,4307146.43 320538.79,4307147.53 320538.75,4307148.64 320538.73,4307150.25"/>
    </edge>
    <edge id=":10196205363_0" function="internal">
        <lane id=":10196205363_0_0" index="0" allow="pedestrian delivery bicycle" speed="5.56" length="7.30" shape="320466.29,4307178.63 320466.25,4307185.93"/>
    </edge>
    <edge id=":10196205363_1" function="internal">
        <lane id=":10196205363_1_0" index="0" allow="pedestrian delivery bicycle" speed="5.56" length="7.26" shape="320463.05,4307185.89 320463.09,4307178.63"/>
    </edge>
    <edge id=":10557125665_0" function="internal">
        <lane id=":10557125665_0_0" index="0" allow="pedestrian delivery bicycle" speed="5.56" length="5.19" shape="320346.62,4307205.09 320341.43,4307205.16"/>
    </edge>
    <edge id=":10557125665_1" function="internal">
        <lane id=":10557125665_1_0" index="0" allow="pedestrian delivery bicycle" speed="5.56" length="5.19" shape="320341.39,4307201.96 320346.58,4307201.89"/>
    </edge>
    <edge id=":10575639295_0" function="internal">
        <lane id=":10575639295_0_0" index="0" disallow="pedestrian tram rail_urban rail rail_electric rail_fast ship container cable_car subway aircraft wheelchair scooter drone" speed="11.18" length="10.93" shape="320379.62,4306988.50 320383.87,4306998.60"/>
        <lane id=":10575639295_0_1" index="1" disallow="pedestrian tram rail_urban rail rail_electric rail_fast ship container cable_car subway aircraft wheelchair scooter drone" speed="11.18" length="10.93" shape="320376.66,4306989.73 320380.90,4306999.81"/>
        <lane id=":10575639295_0_2" index="2" disallow="pedestrian tram rail_urban rail rail_electric rail_fast ship container cable_car subway aircraft wheelchair scooter drone" speed="11.18" length="10.93" shape="320373.70,4306990.95 320377.94,4307001.01"/>
        <lane id=":10575639295_0_3" index="3" disallow="pedestrian tram rail_urban rail rail_electric rail_fast ship container cable_car subway aircraft wheelchair scooter drone" speed="11.18" length="10.93" shape="320370.75,4306992.18 320374.97,4307002.22"/>
    </edge>
    <edge id=":10575639296_0" function="internal">
        <lane id=":10575639296_0_0" index="0" disallow="pedestrian tram rail_urban rail rail_electric rail_fast ship container cable_car subway aircraft wheelchair scooter drone" speed="11.18" length="8.52" shape="320376.07,4306980.35 320379.54,4306988.32"/>
        <lane id=":10575639296_0_1" index="1" disallow="pedestrian tram rail_urban rail rail_electric rail_fast ship container cable_car subway aircraft wheelchair scooter drone" speed="11.18" length="8.52" shape="320373.17,4306981.68 320376.58,4306989.54"/>
        <lane id=":10575639296_0_2" index="2" disallow="pedestrian tram rail_urban rail rail_electric rail_fast ship container cable_car subway aircraft wheelchair scooter drone" speed="11.18" length="8.52" shape="320370.26,4306983.01 320373.63,4306990.77"/>
        <lane id=":10575639296_0_3" index="3" disallow="pedestrian tram rail_urban rail rail_electric rail_fast ship container cable_car subway aircraft wheelchair scooter drone" speed="11.18" length="8.52" shape="320367.35,4306984.35 320370.67,4306992.00"/>
    </edge>
    <edge id=":1057847670_0" function="internal">
        <lane id=":1057847670_0_0" index="0" allow="pedestrian delivery bicycle" speed="5.39" length="6.28" shape="320476.63,4306848.46 320475.04,4306848.06 320473.71,4306848.35 320472.66,4306849.32 320471.87,4306850.99"/>
    </edge>
    <edge id=":1057847670_1" function="internal">
        <lane id=":1057847670_1_0" index="0" allow="pedestrian delivery bicycle" speed="5.56" length="9.60" shape="320476.63,4306848.46 320467.80,4306844.70"/>
    </edge>
    <edge id=":1057847670_2" function="internal">
        <lane id=":1057847670_2_0" index="0" allow="pedestrian delivery bicycle" speed="5.56" length="9.63" shape="320469.04,4306841.75 320477.89,4306845.52"/>
    </edge>
    <edge id=":1057847670_3" function="internal">
        <lane id=":1057847670_3_0" index="0" allow="pedestrian delivery bicycle" speed="5.56" length="10.78" shape="320469.04,4306841.75 320471.14,4306843.14 320472.31,4306845.14 320472.56,4306847.76 320471.87,4306850.99"/>
    </edge>
    <edge id=":1057847670_4" function="internal">
        <lane id=":1057847670_4_0" index="0" allow="pedestrian delivery bicycle" speed="5.20" length="5.04" shape="320469.15,4306849.01 320469.46,4306847.51 320469.35,4306846.29 320468.79,4306845.35 320467.80,4306844.70"/>
    </edge>
    <edge id=":1057847670_5" function="internal">
        <lane id=":1057847670_5_0" index="0" allow="pedestrian delivery bicycle" speed="5.56" length="10.98" shape="320469.15,4306849.01 320470.47,4306846.40 320472.37,4306844.95 320474.85,4306844.66 320477.89,4306845.52"/>
    </edge>
    <edge id=":1057847676_0" function="internal">
        <lane id=":1057847676_0_0" index="0" allow="pedestrian delivery bicycle" speed="5.56" length="7.44" shape="320385.14,4306979.66 320382.94,4306979.78 320381.42,4306979.82 320379.91,4306979.74 320377.72,4306979.49"/>
    </edge>
    <edge id=":1057847676_1" function="internal">
        <lane id=":1057847676_1_0" index="0" allow="pedestrian delivery bicycle" speed="5.56" length="6.88" shape="320378.13,4306976.32 320380.16,4306976.55 320381.55,4306976.61 320382.95,4306976.57 320384.99,4306976.47"/>
    </edge>
    <edge id=":11114888661_0" function="internal">
        <lane id=":11114888661_0_0" index="0" disallow="tram rail_urban rail rail_electric rail_fast ship container cable_car subway aircraft wheelchair scooter drone" speed="11.18" length="0.10" shape="320098.31,4307141.26 320098.31,4307141.26"/>
        <lane id=":11114888661_0_1" index="1" disallow="tram rail_urban rail rail_electric rail_fast ship container cable_car subway aircraft wheelchair scooter drone" speed="11.18" length="0.10" shape="320098.83,4307138.10 320098.83,4307138.10"/>
    </edge>
    <edge id=":11114958011_0" function="internal">
        <lane id=":11114958011_0_0" index="0" disallow="tram rail_urban rail rail_electric rail_fast ship container cable_car subway aircraft wheelchair scooter drone" speed="11.18" length="4.92" shape="320145.80,4307325.04 320140.90,4307324.65"/>
    </edge>
    <edge id=":11114958011_1" function="internal">
        <lane id=":11114958011_1_0" index="0" disallow="tram rail_urban rail rail_electric rail_fast ship container cable_car subway aircraft wheelchair scooter drone" speed="11.18" length="4.92" shape="320141.15,4307321.46 320146.06,4307321.85"/>
    </edge>
    <edge id=":11549499025_0" function="internal">
        <lane id=":11549499025_0_0" index="0" allow="pedestrian delivery bicycle" speed="5.56" length="8.94" shape="320130.95,4307056.30 320131.10,4307057.95 320131.90,4307059.73 320133.37,4307061.62 320135.50,4307063.64"/>
    </edge>
    <edge id=":11549499025_1" function="internal">
        <lane id=":11549499025_1_0" index="0" allow="pedestrian delivery bicycle" speed="5.56" length="12.07" shape="320133.43,4307066.08 320130.74,4307063.48 320128.90,4307060.92 320127.91,4307058.40 320127.77,4307055.93"/>
    </edge>
    <edge id=":12096902332_0" function="internal">
        <lane id=":12096902332_0_0" index="0" allow="pedestrian delivery bicycle" speed="5.56" length="3.92" shape="320240.02,4306744.73 320236.10,4306744.71"/>
    </edge>
    <edge id=":12096902332_1" function="internal">
        <lane id=":12096902332_1_0" index="0" allow="pedestrian delivery bicycle" speed="5.56" length="3.80" shape="320236.11,4306741.51 320239.91,4306741.53"/>
    </edge>
    <edge id=":12096902333_0" function="internal">
        <lane id=":12096902333_0_0" index="0" allow="pedestrian delivery bicycle" speed="5.56" length="4.91" shape="320238.89,4306762.51 320234.01,4306763.13"/>
    </edge>
    <edge id=":12096902333_1" function="internal">
        <lane id=":12096902333_1_0" index="0" allow="pedestrian delivery bicycle" speed="5.56" length="4.77" shape="320233.61,4306759.96 320238.34,4306759.36"/>
    </edge>
    <edge id=":12096902343_0" function="internal">
        <lane id=":12096902343_0_0" index="0" allow="pedestrian delivery bicycle" speed="5.56" length="5.41" shape="320315.41,4306639.63 320315.39,4306634.22"/>
    </edge>
    <edge id=":12096902343_1" function="internal">
        <lane id=":12096902343_1_0" index="0" allow="pedestrian delivery bicycle" speed="5.56" length="5.41" shape="320318.59,4306634.21 320318.61,4306639.61"/>
    </edge>
    <edge id=":12096902345_0" function="internal">
        <lane id=":12096902345_0_0" index="0" allow="pedestrian delivery bicycle" speed="5.56" length="3.50" shape="320248.19,4306781.23 320244.71,4306780.82"/>
    </edge>
    <edge id=":12096902345_1" function="internal">
        <lane id=":12096902345_1_0" index="0" allow="pedestrian delivery bicycle" speed="5.56" length="3.94" shape="320245.09,4306777.64 320249.00,4306778.10"/>
    </edge>
    <edge id=":12096902346_0" function="internal">
        <lane id=":12096902346_0_0" index="0" disallow="tram rail_urban rail rail_electric rail_fast ship container cable_car subway aircraft wheelchair scooter drone" speed="13.89" length="4.98" shape="320241.73,4306792.85 320241.48,4306797.83"/>
    </edge>
    <edge id=":12096902346_1" function="internal">
        <lane id=":12096902346_1_0" index="0" disallow="tram rail_urban rail rail_electric rail_fast ship container cable_car subway aircraft wheelchair scooter drone" speed="13.89" length="4.98" shape="320238.28,4306797.67 320238.53,4306792.69"/>
    </edge>
    <edge id=":12096902347_0" function="internal">
        <lane id=":12096902347_0_0" index="0" disallow="tram rail_urban rail rail_electric rail_fast ship container cable_car subway aircraft wheelchair scooter drone" speed="13.89" length="3.96" shape="320042.65,4306716.80 320041.23,4306720.49"/>
    </edge>
    <edge id=":12096902347_1" function="internal">
        <lane id=":12096902347_1_0" index="0" disallow="tram rail_urban rail rail_electric rail_fast ship container cable_car subway aircraft wheelchair scooter drone" speed="13.89" length="3.96" shape="320038.24,4306719.34 320039.67,4306715.65"/>
    </edge>
    <edge id=":1422600187_0" function="internal">
        <lane id=":1422600187_0_0" index="0" allow="pedestrian delivery bicycle" speed="5.56" length="7.86" shape="320429.25,4307023.22 320429.33,4307020.88 320429.42,4307019.25 320429.25,4307017.67 320428.54,4307015.48"/>
    </edge>
    <edge id=":1422600187_1" function="internal">
        <lane id=":1422600187_1_0" index="0" allow="pedestrian delivery bicycle" speed="5.56" length="4.56" shape="320434.80,4307019.62 320433.77,4307020.22 320433.03,4307021.01 320432.59,4307022.01 320432.45,4307023.19"/>
    </edge>
    <edge id=":1422600187_2" function="internal">
        <lane id=":1422600187_2_0" index="0" allow="pedestrian delivery bicycle" speed="5.56" length="8.52" shape="320434.80,4307019.62 320432.93,4307019.99 320431.26,4307019.42 320429.79,4307017.92 320428.54,4307015.48"/>
    </edge>
    <edge id=":1422600205_0" function="internal">
        <lane id=":1422600205_0_0" index="0" allow="pedestrian delivery bicycle" speed="5.56" length="9.08" shape="320486.37,4307058.50 320483.80,4307057.71 320482.00,4307057.28 320480.18,4307056.98 320477.51,4307056.57"/>
    </edge>
    <edge id=":1422600205_1" function="internal">
        <lane id=":1422600205_1_0" index="0" allow="pedestrian delivery bicycle" speed="5.56" length="10.22" shape="320486.37,4307058.50 320484.44,4307057.47 320482.92,4307055.77 320481.81,4307053.40 320481.11,4307050.35"/>
    </edge>
    <edge id=":1422600205_2" function="internal">
        <lane id=":1422600205_2_0" index="0" allow="pedestrian delivery bicycle" speed="5.56" length="6.65" shape="320484.28,4307049.89 320484.73,4307052.04 320485.39,4307053.68 320486.27,4307054.82 320487.35,4307055.45"/>
    </edge>
    <edge id=":1422600205_3" function="internal">
        <lane id=":1422600205_3_0" index="0" allow="pedestrian delivery bicycle" speed="5.56" length="11.80" shape="320484.28,4307049.89 320484.29,4307053.28 320483.16,4307055.53 320480.90,4307056.62 320477.51,4307056.57"/>
    </edge>
    <edge id=":1422600205_4" function="internal">
        <lane id=":1422600205_4_0" index="0" allow="pedestrian delivery bicycle" speed="4.78" length="5.41" shape="320478.01,4307053.41 320479.57,4307053.44 320480.60,4307052.93 320481.11,4307051.91 320481.11,4307050.35"/>
    </edge>
    <edge id=":1422600205_5" function="internal">
        <lane id=":1422600205_5_0" index="0" allow="pedestrian delivery bicycle" speed="5.56" length="9.58" shape="320478.01,4307053.41 320480.82,4307053.84 320482.75,4307054.16 320484.64,4307054.62 320487.35,4307055.45"/>
    </edge>
    <edge id=":1422600216_0" function="internal">
        <lane id=":1422600216_0_0" index="0" allow="pedestrian delivery bicycle" speed="5.02" length="5.02" shape="320604.17,4306984.69 320603.17,4306983.74 320602.11,4306983.34 320600.99,4306983.49 320599.81,4306984.20"/>
    </edge>
    <edge id=":1422600216_1" function="internal">
        <lane id=":1422600216_1_0" index="0" allow="pedestrian delivery bicycle" speed="5.56" length="10.16" shape="320604.17,4306984.69 320602.76,4306982.27 320602.44,4306979.98 320603.22,4306977.82 320605.08,4306975.79"/>
    </edge>
    <edge id=":1422600216_2" function="internal">
        <lane id=":1422600216_2_0" index="0" allow="pedestrian delivery bicycle" speed="5.10" length="5.07" shape="320607.10,4306978.27 320606.18,4306979.28 320605.81,4306980.35 320605.98,4306981.50 320606.69,4306982.71"/>
    </edge>
    <edge id=":1422600216_3" function="internal">
        <lane id=":1422600216_3_0" index="0" allow="pedestrian delivery bicycle" speed="5.56" length="9.40" shape="320607.10,4306978.27 320599.81,4306984.20"/>
    </edge>
    <edge id=":1422600216_4" function="internal">
        <lane id=":1422600216_4_0" index="0" allow="pedestrian delivery bicycle" speed="5.56" length="9.39" shape="320597.79,4306981.71 320605.08,4306975.79"/>
    </edge>
    <edge id=":1422600216_5" function="internal">
        <lane id=":1422600216_5_0" index="0" allow="pedestrian delivery bicycle" speed="5.56" length="10.24" shape="320597.79,4306981.71 320600.21,4306980.27 320602.49,4306979.96 320604.65,4306980.77 320606.69,4306982.71"/>
    </edge>
    <edge id=":1422601300_0" function="internal">
        <lane id=":1422601300_0_0" index="0" allow="pedestrian delivery bicycle" speed="4.99" length="5.06" shape="320493.03,4306954.18 320492.30,4306952.99 320491.37,4306952.34 320490.24,4306952.23 320488.91,4306952.66"/>
    </edge>
    <edge id=":1422601300_1" function="internal">
        <lane id=":1422601300_1_0" index="0" allow="pedestrian delivery bicycle" speed="5.56" length="9.17" shape="320493.03,4306954.18 320492.19,4306951.49 320492.19,4306949.26 320493.02,4306947.46 320494.69,4306946.12"/>
    </edge>
    <edge id=":1422601300_2" function="internal">
        <lane id=":1422601300_2_0" index="0" allow="pedestrian delivery bicycle" speed="4.91" length="4.37" shape="320496.21,4306948.93 320495.60,4306949.50 320495.36,4306950.35 320495.48,4306951.49 320495.97,4306952.91"/>
    </edge>
    <edge id=":1422601300_3" function="internal">
        <lane id=":1422601300_3_0" index="0" allow="pedestrian delivery bicycle" speed="5.56" length="8.19" shape="320496.21,4306948.93 320488.91,4306952.66"/>
    </edge>
    <edge id=":1422601300_4" function="internal">
        <lane id=":1422601300_4_0" index="0" allow="pedestrian delivery bicycle" speed="5.56" length="8.07" shape="320487.50,4306949.79 320494.69,4306946.12"/>
    </edge>
    <edge id=":1422601300_5" function="internal">
        <lane id=":1422601300_5_0" index="0" allow="pedestrian delivery bicycle" speed="5.56" length="10.41" shape="320487.50,4306949.79 320490.23,4306948.90 320492.56,4306949.12 320494.47,4306950.46 320495.97,4306952.91"/>
    </edge>
    <edge id=":1422601301_0" function="internal">
        <lane id=":1422601301_0_0" index="0" allow="pedestrian delivery bicycle" speed="5.21" length="5.06" shape="320478.00,4306959.91 320477.39,4306958.63 320476.54,4306957.82 320475.45,4306957.46 320474.13,4306957.57"/>
    </edge>
    <edge id=":1422601301_1" function="internal">
        <lane id=":1422601301_1_0" index="0" allow="pedestrian delivery bicycle" speed="5.56" length="10.06" shape="320478.00,4306959.91 320477.53,4306957.20 320478.02,4306954.97 320479.49,4306953.23 320481.94,4306951.97"/>
    </edge>