<?xml version="1.0" encoding="UTF-8"?>

<!-- generated on 2025-02-14 14:02:29 by Eclipse SUMO netedit Version 1.22.0
<neteditConfiguration xmlns:xsi="http://www.w3.org/2001/XMLSchema-instance" xsi:noNamespaceSchemaLocation="http://sumo.dlr.de/xsd/neteditConfiguration.xsd">

    <input>
        <additional-files value="C:\Users\seans\Desktop\GMU\CS690\cs690-p1\Braddock_GMU_Assignment_1\Braddock_GMU_Shapes.poly.xml.gz"/>
        <route-files value="C:\Users\seans\Desktop\GMU\CS690\cs690-p1\Braddock_GMU_Assignment_1\Braddock_GMU.rou.xml"/>
        <data-files value="C:\Users\seans\Desktop\GMU\CS690\cs690-p1\Braddock_GMU_Assignment_1\Braddock_GMU.dat.xml"/>
        <sumo-net-file value="C:\Users\seans\Desktop\GMU\CS690\cs690-p1\Braddock_GMU_Assignment_1\networks\70_static.net.xml"/>
    </input>

    <output>
        <output-file value="C:\Users\seans\Desktop\GMU\CS690\cs690-p1\Braddock_GMU_Assignment_1\networks\70_static.net.xml"/>
        <output.street-names value="true"/>
    </output>

    <processing>
        <geometry.min-radius.fix.railways value="false"/>
        <geometry.max-grade.fix value="false"/>
        <offset.disable-normalization value="true"/>
        <lefthand value="0"/>
    </processing>

    <junctions>
        <no-turnarounds value="true"/>
        <junctions.corner-detail value="5"/>
        <junctions.limit-turn-speed value="5.50"/>
        <rectangular-lane-cut value="0"/>
    </junctions>

    <pedestrian>
        <walkingareas value="0"/>
    </pedestrian>

</neteditConfiguration>
-->

<net version="1.20" junctionCornerDetail="5" limitTurnSpeed="5.50" xmlns:xsi="http://www.w3.org/2001/XMLSchema-instance" xsi:noNamespaceSchemaLocation="http://sumo.dlr.de/xsd/net_file.xsd">

    <location netOffset="-297988.34,-4299103.37" convBoundary="0.00,0.00,3044.33,1892.27" origBoundary="-77.327239,38.817939,-77.292043,38.834906" projParameter="+proj=utm +zone=18 +ellps=WGS84 +datum=WGS84 +units=m +no_defs"/>

    <type id="highway.primary" priority="12" numLanes="2" speed="27.78" disallow="tram rail_urban rail rail_electric rail_fast ship container cable_car subway aircraft wheelchair scooter drone" oneway="0"/>
    <type id="highway.primary_link" priority="7" numLanes="1" speed="22.22" disallow="tram rail_urban rail rail_electric rail_fast ship container cable_car subway aircraft wheelchair scooter drone" oneway="0"/>
    <type id="highway.secondary" priority="11" numLanes="1" speed="27.78" disallow="tram rail_urban rail rail_electric rail_fast ship container cable_car subway aircraft wheelchair scooter drone" oneway="0"/>

    <edge id=":10736528887_0" function="internal">
        <lane id=":10736528887_0_0" index="0" disallow="tram rail_urban rail rail_electric rail_fast ship container cable_car subway aircraft wheelchair scooter drone" speed="17.88" length="8.21" shape="2839.59,924.59 2841.98,924.28 2843.57,923.69 2845.16,923.10 2847.55,922.79"/>
        <lane id=":10736528887_0_1" index="1" disallow="tram rail_urban rail rail_electric rail_fast ship container cable_car subway aircraft wheelchair scooter drone" speed="17.88" length="8.21" shape="2839.67,927.79 2842.06,927.48 2843.65,926.89 2845.24,926.30 2847.63,925.99"/>
    </edge>
    <edge id=":10736528888_0" function="internal">
        <lane id=":10736528888_0_0" index="0" disallow="tram rail_urban rail rail_electric rail_fast ship container cable_car subway aircraft wheelchair scooter drone" speed="17.88" length="8.60" shape="2939.47,917.78 2941.90,917.14 2943.37,915.95 2944.84,914.76 2947.27,914.11"/>
        <lane id=":10736528888_0_1" index="1" disallow="tram rail_urban rail rail_electric rail_fast ship container cable_car subway aircraft wheelchair scooter drone" speed="17.88" length="8.60" shape="2939.47,917.78 2947.46,917.30"/>
        <lane id=":10736528888_0_2" index="2" disallow="tram rail_urban rail rail_electric rail_fast ship container cable_car subway aircraft wheelchair scooter drone" speed="17.88" length="8.60" shape="2939.47,917.78 2941.96,918.13 2943.56,919.14 2945.16,920.15 2947.65,920.50"/>
        <lane id=":10736528888_0_3" index="3" disallow="tram rail_urban rail rail_electric rail_fast ship container cable_car subway aircraft wheelchair scooter drone" speed="17.88" length="8.60" shape="2939.66,920.98 2942.15,921.33 2943.75,922.33 2945.35,923.34 2947.84,923.69"/>
    </edge>
    <edge id=":12350892291_0" function="internal">
        <lane id=":12350892291_0_0" index="0" disallow="tram rail_urban rail rail_electric rail_fast ship container cable_car subway aircraft wheelchair scooter drone" speed="20.12" length="8.55" shape="943.30,1254.68 942.30,1252.36 940.91,1251.05 939.54,1249.74 938.61,1247.40"/>
        <lane id=":12350892291_0_1" index="1" disallow="tram rail_urban rail rail_electric rail_fast ship container cable_car subway aircraft wheelchair scooter drone" speed="20.12" length="8.55" shape="946.43,1254.02 945.43,1251.72 944.05,1250.43 942.68,1249.14 941.76,1246.83"/>
        <lane id=":12350892291_0_2" index="2" disallow="tram rail_urban rail rail_electric rail_fast ship container cable_car subway aircraft wheelchair scooter drone" speed="20.12" length="8.55" shape="946.43,1254.02 944.90,1246.26"/>
        <lane id=":12350892291_0_3" index="3" disallow="tram rail_urban rail rail_electric rail_fast ship container cable_car subway aircraft wheelchair scooter drone" speed="20.12" length="8.55" shape="946.43,1254.02 946.42,1251.55 947.20,1249.86 948.00,1248.17 948.05,1245.69"/>
    </edge>
    <edge id=":12351757485_0" function="internal">
        <lane id=":12351757485_0_0" index="0" disallow="tram rail_urban rail rail_electric rail_fast ship container cable_car subway aircraft wheelchair scooter drone" speed="20.12" length="8.81" shape="912.98,927.97 914.10,930.39 915.95,931.57 917.79,932.75 918.91,935.17"/>
        <lane id=":12351757485_0_1" index="1" disallow="tram rail_urban rail rail_electric rail_fast ship container cable_car subway aircraft wheelchair scooter drone" speed="20.12" length="8.81" shape="912.98,927.97 913.58,930.30 914.36,931.80 915.14,933.31 915.75,935.64"/>
        <lane id=":12351757485_0_2" index="2" disallow="tram rail_urban rail rail_electric rail_fast ship container cable_car subway aircraft wheelchair scooter drone" speed="20.12" length="8.81" shape="909.82,928.44 910.42,930.77 911.20,932.28 911.98,933.78 912.58,936.12"/>
        <lane id=":12351757485_0_3" index="3" disallow="tram rail_urban rail rail_electric rail_fast ship container cable_car subway aircraft wheelchair scooter drone" speed="20.12" length="8.81" shape="909.82,928.44 909.92,930.85 909.62,932.52 909.31,934.18 909.42,936.59"/>
        <lane id=":12351757485_0_4" index="4" disallow="tram rail_urban rail rail_electric rail_fast ship container cable_car subway aircraft wheelchair scooter drone" speed="20.12" length="8.81" shape="909.82,928.44 909.45,931.09 908.03,932.75 906.62,934.42 906.25,937.06"/>
    </edge>
    <edge id=":12351757486_0" function="internal">
        <lane id=":12351757486_0_0" index="0" disallow="tram rail_urban rail rail_electric rail_fast ship container cable_car subway aircraft wheelchair scooter drone" speed="20.12" length="8.21" shape="694.34,1214.53 696.21,1213.01 697.25,1211.67 698.28,1210.34 700.15,1208.81"/>
        <lane id=":12351757486_0_1" index="1" disallow="tram rail_urban rail rail_electric rail_fast ship container cable_car subway aircraft wheelchair scooter drone" speed="20.12" length="8.21" shape="696.09,1217.21 697.96,1215.69 699.00,1214.35 700.04,1213.01 701.91,1211.49"/>
        <lane id=":12351757486_0_2" index="2" disallow="tram rail_urban rail rail_electric rail_fast ship container cable_car subway aircraft wheelchair scooter drone" speed="20.12" length="8.21" shape="697.85,1219.89 699.72,1218.37 700.76,1217.03 701.79,1215.69 703.66,1214.16"/>
        <lane id=":12351757486_0_3" index="3" disallow="tram rail_urban rail rail_electric rail_fast ship container cable_car subway aircraft wheelchair scooter drone" speed="20.12" length="8.21" shape="697.85,1219.89 699.99,1218.78 701.63,1218.36 703.28,1217.95 705.42,1216.84"/>
    </edge>
    <edge id=":1236159108_0" function="internal">
        <lane id=":1236159108_0_0" index="0" disallow="tram rail_urban rail rail_electric rail_fast ship container cable_car subway aircraft wheelchair scooter drone" speed="20.05" length="3.00" shape="1622.46,694.83 1619.53,695.51"/>
    </edge>
    <edge id=":1236159108_1" function="internal">
        <lane id=":1236159108_1_0" index="0" disallow="tram rail_urban rail rail_electric rail_fast ship container cable_car subway aircraft wheelchair scooter drone" speed="17.88" length="3.00" shape="1621.70,691.70 1618.78,692.40"/>
        <lane id=":1236159108_1_1" index="1" disallow="tram rail_urban rail rail_electric rail_fast ship container cable_car subway aircraft wheelchair scooter drone" speed="17.88" length="3.00" shape="1620.95,688.59 1618.03,689.29"/>
    </edge>
    <edge id=":1237580514_0" function="internal">
        <lane id=":1237580514_0_0" index="0" disallow="tram rail_urban rail rail_electric rail_fast ship container cable_car subway aircraft wheelchair scooter drone" speed="3.65" length="4.67" shape="2564.21,1722.00 2563.88,1723.41 2563.27,1724.06 2562.38,1723.96 2561.21,1723.12"/>
    </edge>
    <edge id=":1237580636_0" function="internal">
        <lane id=":1237580636_0_0" index="0" disallow="tram rail_urban rail rail_electric rail_fast ship container cable_car subway aircraft wheelchair scooter drone" speed="17.88" length="8.08" shape="1671.22,679.92 1668.95,680.44 1667.48,681.19 1666.03,681.98 1663.77,682.63"/>
        <lane id=":1237580636_0_1" index="1" disallow="tram rail_urban rail rail_electric rail_fast ship container cable_car subway aircraft wheelchair scooter drone" speed="17.88" length="8.08" shape="1670.86,676.74 1668.52,677.27 1667.02,678.02 1665.53,678.82 1663.21,679.47"/>
    </edge>
    <edge id=":12395412016_0" function="internal">
        <lane id=":12395412016_0_0" index="0" disallow="tram rail_urban rail rail_electric rail_fast ship container cable_car subway aircraft wheelchair scooter drone" speed="17.88" length="8.21" shape="1365.62,774.92 1363.72,776.41 1362.66,777.73 1361.60,779.05 1359.71,780.54"/>
        <lane id=":12395412016_0_1" index="1" disallow="tram rail_urban rail rail_electric rail_fast ship container cable_car subway aircraft wheelchair scooter drone" speed="17.88" length="8.21" shape="1363.91,772.21 1362.01,773.70 1360.95,775.02 1359.89,776.35 1358.00,777.84"/>
        <lane id=":12395412016_0_2" index="2" disallow="tram rail_urban rail rail_electric rail_fast ship container cable_car subway aircraft wheelchair scooter drone" speed="17.88" length="8.21" shape="1363.91,772.21 1361.75,773.28 1360.10,773.67 1358.45,774.06 1356.29,775.13"/>
    </edge>
    <edge id=":12401714238_0" function="internal">
        <lane id=":12401714238_0_0" index="0" disallow="tram rail_urban rail rail_electric rail_fast ship container cable_car subway aircraft wheelchair scooter drone" speed="17.88" length="8.21" shape="2537.25,920.77 2534.86,921.10 2533.28,921.70 2531.69,922.30 2529.31,922.63"/>
        <lane id=":12401714238_0_1" index="1" disallow="tram rail_urban rail rail_electric rail_fast ship container cable_car subway aircraft wheelchair scooter drone" speed="17.88" length="8.21" shape="2537.25,920.77 2534.85,920.60 2533.23,920.10 2531.61,919.60 2529.20,919.43"/>
        <lane id=":12401714238_0_2" index="2" disallow="tram rail_urban rail rail_electric rail_fast ship container cable_car subway aircraft wheelchair scooter drone" speed="17.88" length="8.21" shape="2537.15,917.57 2534.74,917.40 2533.12,916.90 2531.50,916.40 2529.10,916.23"/>
    </edge>
    <edge id=":1594820032_0" function="internal">
        <lane id=":1594820032_0_0" index="0" disallow="tram rail_urban rail rail_electric rail_fast ship container cable_car subway aircraft wheelchair scooter drone" speed="17.88" length="8.60" shape="1102.77,967.94 1104.64,966.29 1105.42,964.57 1106.20,962.85 1108.07,961.18"/>
        <lane id=":1594820032_0_1" index="1" disallow="tram rail_urban rail rail_electric rail_fast ship container cable_car subway aircraft wheelchair scooter drone" speed="17.88" length="8.60" shape="1102.77,967.94 1109.68,963.95"/>
        <lane id=":1594820032_0_2" index="2" disallow="tram rail_urban rail rail_electric rail_fast ship container cable_car subway aircraft wheelchair scooter drone" speed="17.88" length="8.60" shape="1102.77,967.94 1105.15,967.15 1107.03,967.34 1108.91,967.52 1111.29,966.71"/>
        <lane id=":1594820032_0_3" index="3" disallow="tram rail_urban rail rail_electric rail_fast ship container cable_car subway aircraft wheelchair scooter drone" speed="17.88" length="8.60" shape="1104.36,970.72 1106.75,969.92 1108.63,970.11 1110.52,970.29 1112.90,969.48"/>
    </edge>
    <edge id=":2414217285_0" function="internal">
        <lane id=":2414217285_0_0" index="0" disallow="tram rail_urban rail rail_electric rail_fast ship container cable_car subway aircraft wheelchair scooter drone" speed="14.53" length="15.06" shape="1672.83,660.45 1675.85,662.08 1678.88,663.14 1682.49,663.69 1687.26,663.77"/>
    </edge>
    <edge id=":2414217285_1" function="internal">
        <lane id=":2414217285_1_0" index="0" disallow="tram rail_urban rail rail_electric rail_fast ship container cable_car subway aircraft wheelchair scooter drone" speed="17.88" length="14.90" shape="1672.31,665.42 1687.26,663.77"/>
        <lane id=":2414217285_1_1" index="1" disallow="tram rail_urban rail rail_electric rail_fast ship container cable_car subway aircraft wheelchair scooter drone" speed="17.88" length="14.90" shape="1672.65,668.60 1687.33,666.97"/>
    </edge>
    <edge id=":63641347_0" function="internal">
        <lane id=":63641347_0_0" index="0" disallow="tram rail_urban rail rail_electric rail_fast ship container cable_car subway aircraft wheelchair scooter drone" speed="17.88" length="8.81" shape="3024.08,915.91 3026.51,915.26 3027.98,914.07 3029.45,912.88 3031.87,912.23"/>
        <lane id=":63641347_0_1" index="1" disallow="tram rail_urban rail rail_electric rail_fast ship container cable_car subway aircraft wheelchair scooter drone" speed="17.88" length="8.81" shape="3024.27,919.10 3026.70,918.45 3028.17,917.26 3029.64,916.07 3032.07,915.42"/>
    </edge>
    <edge id=":63641377_0" function="internal">
        <lane id=":63641377_0_0" index="0" disallow="tram rail_urban rail rail_electric rail_fast ship container cable_car subway aircraft wheelchair scooter drone" speed="17.88" length="8.21" shape="2795.97,922.64 2798.36,922.51 2799.97,922.03 2801.58,921.54 2803.97,921.37"/>
        <lane id=":63641377_0_1" index="1" disallow="tram rail_urban rail rail_electric rail_fast ship container cable_car subway aircraft wheelchair scooter drone" speed="17.88" length="8.21" shape="2795.81,925.84 2798.22,925.71 2799.84,925.23 2801.46,924.74 2803.87,924.56"/>
        <lane id=":63641377_0_2" index="2" disallow="tram rail_urban rail rail_electric rail_fast ship container cable_car subway aircraft wheelchair scooter drone" speed="17.88" length="8.21" shape="2795.66,929.04 2798.08,928.91 2799.71,928.43 2801.35,927.94 2803.77,927.76"/>
    </edge>
    <edge id=":63641390_0" function="internal">
        <lane id=":63641390_0_0" index="0" disallow="tram rail_urban rail rail_electric rail_fast ship container cable_car subway aircraft wheelchair scooter drone" speed="17.88" length="8.37" shape="2684.65,910.59 2687.17,910.36 2688.85,909.45 2690.51,908.55 2693.03,908.39"/>
        <lane id=":63641390_0_1" index="1" disallow="tram rail_urban rail rail_electric rail_fast ship container cable_car subway aircraft wheelchair scooter drone" speed="17.88" length="8.37" shape="2684.65,910.59 2692.60,911.56"/>
        <lane id=":63641390_0_2" index="2" disallow="tram rail_urban rail rail_electric rail_fast ship container cable_car subway aircraft wheelchair scooter drone" speed="17.88" length="8.37" shape="2684.31,913.77 2692.17,914.73"/>
        <lane id=":63641390_0_3" index="3" disallow="tram rail_urban rail rail_electric rail_fast ship container cable_car subway aircraft wheelchair scooter drone" speed="17.88" length="8.37" shape="2684.31,913.77 2686.66,914.53 2688.03,915.79 2689.40,917.08 2691.74,917.90"/>
    </edge>
    <edge id=":63641414_0" function="internal">
        <lane id=":63641414_0_0" index="0" disallow="tram rail_urban rail rail_electric rail_fast ship container cable_car subway aircraft wheelchair scooter drone" speed="17.88" length="8.10" shape="2363.41,895.76 2365.72,896.13 2367.36,895.98 2369.01,895.79 2371.36,896.04"/>
        <lane id=":63641414_0_1" index="1" disallow="tram rail_urban rail rail_electric rail_fast ship container cable_car subway aircraft wheelchair scooter drone" speed="17.88" length="8.10" shape="2362.57,898.85 2364.93,899.23 2366.61,899.09 2368.30,898.91 2370.69,899.17"/>
    </edge>
    <edge id=":63641425_0" function="internal">
        <lane id=":63641425_0_0" index="0" disallow="tram rail_urban rail rail_electric rail_fast ship container cable_car subway aircraft wheelchair scooter drone" speed="17.88" length="7.76" shape="2274.57,861.98 2276.62,862.79 2278.16,862.96 2279.73,863.07 2281.87,863.70"/>
        <lane id=":63641425_0_1" index="1" disallow="tram rail_urban rail rail_electric rail_fast ship container cable_car subway aircraft wheelchair scooter drone" speed="17.88" length="7.76" shape="2274.57,861.98 2276.44,863.26 2277.54,864.44 2278.66,865.55 2280.62,866.65"/>
        <lane id=":63641425_0_2" index="2" disallow="tram rail_urban rail rail_electric rail_fast ship container cable_car subway aircraft wheelchair scooter drone" speed="17.88" length="7.76" shape="2273.05,864.80 2275.00,866.12 2276.15,867.32 2277.34,868.46 2279.38,869.60"/>
    </edge>
    <edge id=":63641442_0" function="internal">
        <lane id=":63641442_0_0" index="0" disallow="tram rail_urban rail rail_electric rail_fast ship container cable_car subway aircraft wheelchair scooter drone" speed="17.88" length="8.11" shape="2145.08,789.67 2147.52,790.29 2149.40,790.00 2151.25,789.77 2153.60,790.56"/>
        <lane id=":63641442_0_1" index="1" disallow="tram rail_urban rail rail_electric rail_fast ship container cable_car subway aircraft wheelchair scooter drone" speed="17.88" length="8.11" shape="2145.08,789.67 2151.99,793.32"/>
        <lane id=":63641442_0_2" index="2" disallow="tram rail_urban rail rail_electric rail_fast ship container cable_car subway aircraft wheelchair scooter drone" speed="17.88" length="8.11" shape="2143.70,792.56 2150.39,796.09"/>
        <lane id=":63641442_0_3" index="3" disallow="tram rail_urban rail rail_electric rail_fast ship container cable_car subway aircraft wheelchair scooter drone" speed="17.88" length="8.11" shape="2143.70,792.56 2145.54,794.00 2146.30,795.61 2147.03,797.27 2148.79,798.86"/>
    </edge>
    <edge id=":63641533_0" function="internal">
        <lane id=":63641533_0_0" index="0" disallow="tram rail_urban rail rail_electric rail_fast ship container cable_car subway aircraft wheelchair scooter drone" speed="17.88" length="8.25" shape="1658.04,670.51 1660.24,669.55 1661.49,668.21 1662.75,666.94 1664.99,666.20"/>
        <lane id=":63641533_0_1" index="1" disallow="tram rail_urban rail rail_electric rail_fast ship container cable_car subway aircraft wheelchair scooter drone" speed="17.88" length="8.25" shape="1658.68,673.65 1660.80,672.71 1661.98,671.37 1663.18,670.11 1665.33,669.38"/>
    </edge>
    <edge id=":63641608_0" function="internal">
        <lane id=":63641608_0_0" index="0" disallow="tram rail_urban rail rail_electric rail_fast ship container cable_car subway aircraft wheelchair scooter drone" speed="17.88" length="8.65" shape="1254.59,850.77 1256.00,848.71 1256.35,846.86 1256.72,845.03 1258.20,843.05"/>
        <lane id=":63641608_0_1" index="1" disallow="tram rail_urban rail rail_electric rail_fast ship container cable_car subway aircraft wheelchair scooter drone" speed="17.88" length="8.65" shape="1256.82,853.06 1258.20,851.03 1258.52,849.20 1258.88,847.40 1260.33,845.45"/>
    </edge>
    <edge id=":63641669_0" function="internal">
        <lane id=":63641669_0_0" index="0" disallow="tram rail_urban rail rail_electric rail_fast ship container cable_car subway aircraft wheelchair scooter drone" speed="20.12" length="8.21" shape="720.05,1195.75 721.92,1194.23 722.96,1192.89 724.00,1191.55 725.87,1190.02"/>
        <lane id=":63641669_0_1" index="1" disallow="tram rail_urban rail rail_electric rail_fast ship container cable_car subway aircraft wheelchair scooter drone" speed="20.12" length="8.21" shape="721.81,1198.43 723.68,1196.90 724.71,1195.56 725.75,1194.22 727.62,1192.70"/>
        <lane id=":63641669_0_2" index="2" disallow="tram rail_urban rail rail_electric rail_fast ship container cable_car subway aircraft wheelchair scooter drone" speed="20.12" length="8.21" shape="723.56,1201.10 725.43,1199.58 726.47,1198.24 727.51,1196.90 729.38,1195.38"/>
        <lane id=":63641669_0_3" index="3" disallow="tram rail_urban rail rail_electric rail_fast ship container cable_car subway aircraft wheelchair scooter drone" speed="20.12" length="8.21" shape="725.32,1203.78 727.19,1202.25 728.22,1200.92 729.26,1199.58 731.13,1198.06"/>
        <lane id=":63641669_0_4" index="4" disallow="tram rail_urban rail rail_electric rail_fast ship container cable_car subway aircraft wheelchair scooter drone" speed="20.12" length="8.21" shape="725.32,1203.78 727.46,1202.67 729.10,1202.25 730.74,1201.84 732.88,1200.73"/>
    </edge>
    <edge id=":63641677_0" function="internal">
        <lane id=":63641677_0_0" index="0" disallow="tram rail_urban rail rail_electric rail_fast ship container cable_car subway aircraft wheelchair scooter drone" speed="20.12" length="8.18" shape="640.87,1251.33 642.75,1249.88 643.80,1248.58 644.83,1247.26 646.68,1245.75"/>
        <lane id=":63641677_0_1" index="1" disallow="tram rail_urban rail rail_electric rail_fast ship container cable_car subway aircraft wheelchair scooter drone" speed="20.12" length="8.18" shape="642.55,1254.06 644.45,1252.59 645.51,1251.28 646.56,1249.95 648.43,1248.43"/>
        <lane id=":63641677_0_2" index="2" disallow="tram rail_urban rail rail_electric rail_fast ship container cable_car subway aircraft wheelchair scooter drone" speed="20.12" length="8.18" shape="642.55,1254.06 644.73,1253.01 646.39,1252.62 648.04,1252.21 650.18,1251.11"/>
    </edge>
    <edge id=":63647661_0" function="internal">
        <lane id=":63647661_0_0" index="0" disallow="tram rail_urban rail rail_electric rail_fast ship container cable_car subway aircraft wheelchair scooter drone" speed="3.65" length="4.67" shape="2239.33,-0.56 2240.50,-1.41 2241.39,-1.50 2242.00,-0.84 2242.33,0.56"/>
    </edge>
    <edge id=":63775065_0" function="internal">
        <lane id=":63775065_0_0" index="0" disallow="tram rail_urban rail rail_electric rail_fast ship container cable_car subway aircraft wheelchair scooter drone" speed="20.12" length="8.12" shape="936.17,1234.00 935.49,1231.64 934.68,1230.11 933.89,1228.59 933.30,1226.21"/>
        <lane id=":63775065_0_1" index="1" disallow="tram rail_urban rail rail_electric rail_fast ship container cable_car subway aircraft wheelchair scooter drone" speed="20.12" length="8.12" shape="939.32,1233.42 938.65,1231.10 937.84,1229.60 937.05,1228.10 936.47,1225.77"/>
        <lane id=":63775065_0_2" index="2" disallow="tram rail_urban rail rail_electric rail_fast ship container cable_car subway aircraft wheelchair scooter drone" speed="20.12" length="8.12" shape="942.47,1232.85 941.80,1230.56 941.00,1229.09 940.21,1227.62 939.63,1225.32"/>
        <lane id=":63775065_0_3" index="3" disallow="tram rail_urban rail rail_electric rail_fast ship container cable_car subway aircraft wheelchair scooter drone" speed="20.12" length="8.12" shape="945.62,1232.28 944.96,1230.03 944.15,1228.58 943.38,1227.13 942.80,1224.87"/>
        <lane id=":63775065_0_4" index="4" disallow="tram rail_urban rail rail_electric rail_fast ship container cable_car subway aircraft wheelchair scooter drone" speed="20.12" length="8.12" shape="945.62,1232.28 945.46,1229.97 945.74,1228.36 946.05,1226.75 945.97,1224.42"/>
    </edge>
    <edge id=":660065991_0" function="internal">
        <lane id=":660065991_0_0" index="0" disallow="tram rail_urban rail rail_electric rail_fast ship container cable_car subway aircraft wheelchair scooter drone" speed="17.88" length="8.14" shape="2474.55,920.78 2472.16,921.08 2470.56,921.65 2468.97,922.19 2466.58,922.42"/>
        <lane id=":660065991_0_1" index="1" disallow="tram rail_urban rail rail_electric rail_fast ship container cable_car subway aircraft wheelchair scooter drone" speed="17.88" length="8.14" shape="2474.48,917.58 2472.12,917.88 2470.55,918.45 2468.97,918.99 2466.61,919.22"/>
    </edge>
    <edge id=":660066007_0" function="internal">
        <lane id=":660066007_0_0" index="0" disallow="tram rail_urban rail rail_electric rail_fast ship container cable_car subway aircraft wheelchair scooter drone" speed="20.05" length="3.55" shape="1775.11,694.34 1771.72,693.31"/>
    </edge>
    <edge id=":660066007_1" function="internal">
        <lane id=":660066007_1_0" index="0" disallow="tram rail_urban rail rail_electric rail_fast ship container cable_car subway aircraft wheelchair scooter drone" speed="17.88" length="3.39" shape="1776.00,691.27 1772.63,690.40"/>
        <lane id=":660066007_1_1" index="1" disallow="tram rail_urban rail rail_electric rail_fast ship container cable_car subway aircraft wheelchair scooter drone" speed="17.88" length="3.39" shape="1776.88,688.19 1773.60,687.34"/>
        <lane id=":660066007_1_2" index="2" disallow="tram rail_urban rail rail_electric rail_fast ship container cable_car subway aircraft wheelchair scooter drone" speed="17.88" length="3.39" shape="1777.76,685.12 1774.56,684.28"/>
    </edge>
    <edge id=":660066024_0" function="internal">
        <lane id=":660066024_0_0" index="0" disallow="tram rail_urban rail rail_electric rail_fast ship container cable_car subway aircraft wheelchair scooter drone" speed="17.88" length="8.03" shape="1339.49,794.81 1337.81,796.35 1336.93,797.71 1336.07,799.09 1334.46,800.74"/>
        <lane id=":660066024_0_1" index="1" disallow="tram rail_urban rail rail_electric rail_fast ship container cable_car subway aircraft wheelchair scooter drone" speed="17.88" length="8.03" shape="1339.49,794.81 1337.48,795.98 1335.91,796.47 1334.37,797.00 1332.43,798.27"/>
        <lane id=":660066024_0_2" index="2" disallow="tram rail_urban rail rail_electric rail_fast ship container cable_car subway aircraft wheelchair scooter drone" speed="17.88" length="8.03" shape="1337.60,792.22 1335.54,793.43 1333.95,793.94 1332.38,794.49 1330.40,795.80"/>
        <lane id=":660066024_0_3" index="3" disallow="tram rail_urban rail rail_electric rail_fast ship container cable_car subway aircraft wheelchair scooter drone" speed="17.88" length="8.03" shape="1335.71,789.64 1333.61,790.87 1331.98,791.41 1330.38,791.99 1328.36,793.32"/>
    </edge>
    <edge id=":660066026_0" function="internal">
        <lane id=":660066026_0_0" index="0" disallow="tram rail_urban rail rail_electric rail_fast ship container cable_car subway aircraft wheelchair scooter drone" speed="17.88" length="8.18" shape="1268.37,856.86 1266.79,858.70 1266.00,860.20 1265.20,861.70 1263.60,863.51"/>
        <lane id=":660066026_0_1" index="1" disallow="tram rail_urban rail rail_electric rail_fast ship container cable_car subway aircraft wheelchair scooter drone" speed="17.88" length="8.18" shape="1266.16,854.54 1264.60,856.37 1263.81,857.86 1263.02,859.35 1261.43,861.15"/>
        <lane id=":660066026_0_2" index="2" disallow="tram rail_urban rail rail_electric rail_fast ship container cable_car subway aircraft wheelchair scooter drone" speed="17.88" length="8.18" shape="1263.96,852.22 1262.41,854.04 1261.63,855.53 1260.84,857.01 1259.26,858.80"/>
    </edge>
    <edge id=":660066033_0" function="internal">
        <lane id=":660066033_0_0" index="0" disallow="tram rail_urban rail rail_electric rail_fast ship container cable_car subway aircraft wheelchair scooter drone" speed="17.88" length="8.21" shape="1080.47,1001.30 1078.51,1002.67 1077.40,1003.93 1076.29,1005.19 1074.35,1006.59"/>
        <lane id=":660066033_0_1" index="1" disallow="tram rail_urban rail rail_electric rail_fast ship container cable_car subway aircraft wheelchair scooter drone" speed="17.88" length="8.21" shape="1078.91,998.50 1076.95,999.88 1075.82,1001.14 1074.70,1002.41 1072.75,1003.82"/>
        <lane id=":660066033_0_2" index="2" disallow="tram rail_urban rail rail_electric rail_fast ship container cable_car subway aircraft wheelchair scooter drone" speed="17.88" length="8.21" shape="1077.36,995.70 1075.38,997.09 1074.25,998.35 1073.12,999.63 1071.16,1001.04"/>
        <lane id=":660066033_0_3" index="3" disallow="tram rail_urban rail rail_electric rail_fast ship container cable_car subway aircraft wheelchair scooter drone" speed="17.88" length="8.21" shape="1077.36,995.70 1075.13,996.66 1073.45,996.97 1071.78,997.29 1069.56,998.27"/>
    </edge>
    <edge id=":946381229#1-AddedOnRampNode_0" function="internal">
        <lane id=":946381229#1-AddedOnRampNode_0_0" index="0" disallow="tram rail_urban rail rail_electric rail_fast ship container cable_car subway aircraft wheelchair scooter drone" speed="17.88" length="8.00" shape="1527.02,714.94 1519.27,716.91"/>
        <lane id=":946381229#1-AddedOnRampNode_0_1" index="1" disallow="tram rail_urban rail rail_electric rail_fast ship container cable_car subway aircraft wheelchair scooter drone" speed="17.88" length="8.00" shape="1526.24,711.83 1518.48,713.80"/>
    </edge>
    <edge id=":9788229060_0" function="internal">