<?xml version="1.0" encoding="UTF-8"?>

<!-- generated on 2025-02-14 12:57:19 by Eclipse SUMO netedit Version 1.22.0
<neteditConfiguration xmlns:xsi="http://www.w3.org/2001/XMLSchema-instance" xsi:noNamespaceSchemaLocation="http://sumo.dlr.de/xsd/neteditConfiguration.xsd">

    <input>
        <sumocfg-file value="C:\Users\seans\Desktop\GMU\CS690\cs690-p1\hello_world\hw_viz.sumocfg"/>
        <route-files value="C:\Users\seans\Desktop\GMU\CS690\cs690-p1\hello_world\hw_route.rou.xml"/>
        <sumo-net-file value="C:\Users\seans\Desktop\GMU\CS690\cs690-p1\hello_world\hw_network.net.xml"/>
    </input>

    <output>
        <output-file value="C:\Users\seans\Desktop\GMU\CS690\cs690-p1\hello_world\hw_network.net.xml"/>
    </output>

    <processing>
        <geometry.min-radius.fix.railways value="false"/>
        <geometry.max-grade.fix value="false"/>
        <offset.disable-normalization value="true"/>
        <lefthand value="0"/>
    </processing>

    <junctions>
        <no-turnarounds value="true"/>
        <junctions.corner-detail value="5"/>
        <junctions.limit-turn-speed value="5.50"/>
        <rectangular-lane-cut value="0"/>
    </junctions>

    <pedestrian>
        <walkingareas value="0"/>
    </pedestrian>

</neteditConfiguration>
-->

<net version="1.20" junctionCornerDetail="5" limitTurnSpeed="5.50" xmlns:xsi="http://www.w3.org/2001/XMLSchema-instance" xsi:noNamespaceSchemaLocation="http://sumo.dlr.de/xsd/net_file.xsd">

    <location netOffset="0.00,0.00" convBoundary="-100.00,50.00,100.10,50.10" origBoundary="-10000000000.00,-10000000000.00,10000000000.00,10000000000.00" projParameter="!"/>

    <edge id=":2_0" function="internal">
        <lane id=":2_0_0" index="0" speed="13.89" length="0.30" shape="-0.15,48.40 0.15,48.40"/>
    </edge>

    <edge id="E0" from="1" to="2" priority="-1">
        <lane id="E0_0" index="0" speed="13.89" length="99.85" shape="-100.00,48.40 -0.15,48.40"/>
    </edge>
    <edge id="E1" from="2" to="J3" priority="-1" shape="0.00,50.00 100.10,50.10">
        <lane id="E1_0" index="0" speed="13.89" length="99.85" shape="0.15,48.40 100.00,48.50"/>
    </edge>

    <junction id="1" type="dead_end" x="-100.00" y="50.00" incLanes="" intLanes="" shape="-100.00,50.00 -100.00,46.80"/>
    <junction id="2" type="priority" x="0.00" y="50.00" incLanes="E0_0" intLanes=":2_0_0" shape="0.15,50.00 0.15,46.80 -0.15,46.80 -0.15,50.00">
        <request index="0" response="0" foes="0" cont="0"/>
    </junction>
    <junction id="J3" type="dead_end" x="100.00" y="50.00" incLanes="E1_0" intLanes="" shape="100.00,46.90 100.00,50.10"/>

    <connection from="E0" to="E1" fromLane="0" toLane="0" via=":2_0_0" dir="s" state="M"/>

    <connection from=":2_0" to="E1" fromLane="0" toLane="0" dir="s" state="M"/>

</net>
