<?xml version="1.0" encoding="UTF-8"?>

<!-- generated on 2025-02-14 13:00:27 by Eclipse SUMO netedit Version 1.22.0
-->

<routes xmlns:xsi="http://www.w3.org/2001/XMLSchema-instance" xsi:noNamespaceSchemaLocation="http://sumo.dlr.de/xsd/routes_file.xsd">
    <!-- Routes -->
    <route id="miniroute" edges="E0 E1"/>
    <!-- Vehicles, persons and containers (sorted by depart) -->
    <flow id="f_0" begin="0.00" route="miniroute" end="3600.00" vehsPerHour="1800"/>
    <flow id="f_1" begin="0.00" color="blue" route="miniroute" end="3600.00" vehsPerHour="1800"/>
</routes>
